  Page 1                                            1/18/2026 4:40:12 PM
  **********************************************************************
  *                             E P A N E T                            *
  *                     Hydraulic and Water Quality                    *
  *                     Analysis for Pipe Networks                     *
  *                           Version 2.2                              *
  **********************************************************************
  
  Input File: clean_network.inp
  
  
  
  Link - Node Table:
  ----------------------------------------------------------------------
  Link           Start          End                Length  Diameter
  ID             Node           Node                    m        mm
  ----------------------------------------------------------------------
  P1             R1             J1                   1000       300
  P2             J1             J2                    800       300
  P3             J2             J3                    600       300
  P4             J1             J4                    400       150
  P5             J2             J5                    400       150
  P6             J3             J6                    400       150
  1              J4             1                    1000        12
  2              1              J5                   1000        12
  3              J6             J5                   1000        12
  4              J1             1                    #N/A        12 Valve
  
  Node Results:
  ----------------------------------------------------------------------
  Node                Demand      Head  Pressure   Quality
  ID                     LPS         m         m          
  ----------------------------------------------------------------------
  J1                    0.50     49.99     49.99      0.00
  J2                    1.00     49.98     49.98      0.00
  J3                    0.50     49.98     49.98      0.00
  J4                    0.30     49.98     49.98      0.00
  J5                    0.30     49.98     49.98      0.00
  J6                    0.20     49.98     49.98      0.00
  1                     0.00     49.98     49.98      0.00
  R1                   -2.80     50.00      0.00      0.00 Reservoir
  2                     0.00     10.00     10.00      0.00 Tank
  
  Link Results:
  ----------------------------------------------------------------------
  Link                  Flow  VelocityUnit Headloss    Status
  ID                     LPS       m/s      m/km
  ----------------------------------------------------------------------
  P1                    2.80      0.04      0.01      Open
  P2                    2.00      0.03      0.01      Open
  P3                    0.70      0.01      0.00      Open
  P4                    0.30      0.02      0.01      Open
  P5                    0.30      0.02      0.01      Open
  P6                    0.20      0.01      0.00      Open


  Page 2                                                                
  Link Results: (continued)
  ----------------------------------------------------------------------
  Link                  Flow  VelocityUnit Headloss    Status
  ID                     LPS       m/s      m/km
  ----------------------------------------------------------------------
  1                     0.00      0.01      0.00      Open
  2                     0.00      0.01      0.00      Open
  3                     0.00      0.00      0.00      Open
  4                     0.00      0.00      0.00    Closed Valve
  
